  
       XFOIL         Version 6.99
  
 Calculated polar for: HQ47E5A37C                                      
  
 2 2 Reynolds number ~ 1/sqrt(CL)   Mach number ~ 1/sqrt(CL)  
  
 xtrf =   1.000 (top)        0.720 (bottom)  
 Mach =   0.000     Re =     1.210 e 6     Ncrit =  10.500 10.500
  
   alpha    CL        CD       CDp       CM     Top_Xtr  Bot_Xtr  Top_Itr  Bot_Itr
  ------ -------- --------- --------- -------- -------- -------- -------- --------
  -2.028   0.2000   0.00603  -0.00015  -0.0844   0.6928   0.1787  18.3946  76.1208
  -1.627   0.2500   0.00543  -0.00017  -0.0866   0.6923   0.3811  18.4255  86.4917
  -0.839   0.3500   0.00455  -0.00012  -0.0908   0.6891   0.7200  18.5968 103.8630
  -0.423   0.4000   0.00470  -0.00007  -0.0919   0.6859   0.7200  18.7682 103.8630
  -0.006   0.4500   0.00487  -0.00002  -0.0930   0.6814   0.7200  19.0059 103.8630
   0.409   0.5000   0.00498   0.00003  -0.0941   0.6791   0.7200  19.1297 103.8630
   0.825   0.5500   0.00509   0.00007  -0.0952   0.6755   0.7200  19.3263 103.8630
   1.242   0.6000   0.00521   0.00010  -0.0963   0.6706   0.7200  19.5845 103.8630
   1.663   0.6500   0.00537   0.00013  -0.0974   0.6641   0.7200  19.9333 103.8630
   2.082   0.7000   0.00548   0.00017  -0.0985   0.6591   0.7200  20.2060 103.8630
   2.503   0.7500   0.00560   0.00019  -0.0996   0.6521   0.7200  20.5811 103.8630
   2.928   0.8000   0.00578   0.00020  -0.1006   0.6435   0.7200  21.0410 103.8630
   3.351   0.8500   0.00590   0.00023  -0.1016   0.6349   0.7200  21.5029 103.8630
   3.780   0.9000   0.00609   0.00024  -0.1026   0.6239   0.7200  22.0918 103.8630
   4.211   0.9500   0.00628   0.00025  -0.1035   0.6109   0.7200  22.7854 103.8630
   4.646   1.0000   0.00650   0.00027  -0.1044   0.5952   0.7200  23.6248 103.8630
   5.089   1.0500   0.00679   0.00030  -0.1051   0.5759   0.7200  24.6556 103.8630
   5.547   1.1000   0.00720   0.00035  -0.1056   0.5481   0.7200  26.1292 103.8630
