  
       XFOIL         Version 6.99
  
 Calculated polar for: HQ47E5A37C                                      
  
 2 2 Reynolds number ~ 1/sqrt(CL)   Mach number ~ 1/sqrt(CL)  
  
 xtrf =   1.000 (top)        0.720 (bottom)  
 Mach =   0.000     Re =     1.074 e 6     Ncrit =  10.500 10.500
  
   alpha    CL        CD       CDp       CM     Top_Xtr  Bot_Xtr  Top_Itr  Bot_Itr
  ------ -------- --------- --------- -------- -------- -------- -------- --------
  -2.026   0.2000   0.00611  -0.00011  -0.0845   0.6963   0.2096  18.2078  77.7122
  -1.627   0.2500   0.00545  -0.00013  -0.0868   0.6959   0.4326  18.2280  89.1173
  -0.833   0.3500   0.00475  -0.00004  -0.0907   0.6933   0.7200  18.3693 103.8630
  -0.418   0.4000   0.00489   0.00001  -0.0918   0.6908   0.7200  18.5046 103.8630
  -0.002   0.4500   0.00504   0.00006  -0.0929   0.6875   0.7200  18.6806 103.8630
   0.416   0.5000   0.00521   0.00011  -0.0940   0.6830   0.7200  18.9223 103.8630
   0.833   0.5500   0.00534   0.00016  -0.0951   0.6795   0.7200  19.1071 103.8630
   1.250   0.6000   0.00545   0.00021  -0.0962   0.6754   0.7200  19.3278 103.8630
   1.669   0.6500   0.00558   0.00024  -0.0973   0.6701   0.7200  19.6144 103.8630
   2.093   0.7000   0.00576   0.00026  -0.0983   0.6631   0.7200  19.9881 103.8630
   2.512   0.7500   0.00586   0.00030  -0.0994   0.6575   0.7200  20.2879 103.8630
   2.936   0.8000   0.00600   0.00031  -0.1004   0.6496   0.7200  20.7115 103.8630
   3.362   0.8500   0.00617   0.00033  -0.1014   0.6409   0.7200  21.1784 103.8630
   3.790   0.9000   0.00633   0.00033  -0.1024   0.6304   0.7200  21.7430 103.8630
   4.221   0.9500   0.00651   0.00035  -0.1033   0.6186   0.7200  22.3743 103.8630
   4.658   1.0000   0.00675   0.00036  -0.1042   0.6038   0.7200  23.1686 103.8630
   5.101   1.0500   0.00702   0.00038  -0.1049   0.5856   0.7200  24.1385 103.8630
   5.553   1.1000   0.00736   0.00042  -0.1055   0.5614   0.7200  25.4215 103.8630
